[Format]      =  4.0
[Frequency]   =  0
[Precision]   =  1e-008
[MinAngle]    =  30
[DoSmartMesh] =  0
[Depth]       =  128.63999999999999
[LengthUnits] =  millimeters
[ProblemType] =  planar
[Coordinates] =  cartesian
[ACSolver]    =  0
[PrevType]    =  0
[PrevSoln]    =  "temp.ans"
[Comment]     =  "Add comments here."
[PointProps]   = 0
[BdryProps]   = 17
  <BeginBdry>
    <BdryName> = "Az=0"
    <BdryType> = 0
    <A_0> = 0
    <A_1> = 0
    <A_2> = 0
    <Phi> = 0
    <c0> = 0
    <c0i> = 0
    <c1> = 0
    <c1i> = 0
    <Mu_ssd> = 0
    <Sigma_ssd> = 0
    <innerangle> = 0
    <outerangle> = 0
  <EndBdry>
  <BeginBdry>
    <BdryName> = "PeriodicBC1"
    <BdryType> = 4
    <A_0> = 0
    <A_1> = 0
    <A_2> = 0
    <Phi> = 0
    <c0> = 0
    <c0i> = 0
    <c1> = 0
    <c1i> = 0
    <Mu_ssd> = 0
    <Sigma_ssd> = 0
    <innerangle> = 0
    <outerangle> = 0
  <EndBdry>
  <BeginBdry>
    <BdryName> = "PeriodicBC2"
    <BdryType> = 4
    <A_0> = 0
    <A_1> = 0
    <A_2> = 0
    <Phi> = 0
    <c0> = 0
    <c0i> = 0
    <c1> = 0
    <c1i> = 0
    <Mu_ssd> = 0
    <Sigma_ssd> = 0
    <innerangle> = 0
    <outerangle> = 0
  <EndBdry>
  <BeginBdry>
    <BdryName> = "PeriodicBC3"
    <BdryType> = 4
    <A_0> = 0
    <A_1> = 0
    <A_2> = 0
    <Phi> = 0
    <c0> = 0
    <c0i> = 0
    <c1> = 0
    <c1i> = 0
    <Mu_ssd> = 0
    <Sigma_ssd> = 0
    <innerangle> = 0
    <outerangle> = 0
  <EndBdry>
  <BeginBdry>
    <BdryName> = "PeriodicBC4"
    <BdryType> = 4
    <A_0> = 0
    <A_1> = 0
    <A_2> = 0
    <Phi> = 0
    <c0> = 0
    <c0i> = 0
    <c1> = 0
    <c1i> = 0
    <Mu_ssd> = 0
    <Sigma_ssd> = 0
    <innerangle> = 0
    <outerangle> = 0
  <EndBdry>
  <BeginBdry>
    <BdryName> = "PeriodicBC5"
    <BdryType> = 4
    <A_0> = 0
    <A_1> = 0
    <A_2> = 0
    <Phi> = 0
    <c0> = 0
    <c0i> = 0
    <c1> = 0
    <c1i> = 0
    <Mu_ssd> = 0
    <Sigma_ssd> = 0
    <innerangle> = 0
    <outerangle> = 0
  <EndBdry>
  <BeginBdry>
    <BdryName> = "AntiPeriodicBC1"
    <BdryType> = 5
    <A_0> = 0
    <A_1> = 0
    <A_2> = 0
    <Phi> = 0
    <c0> = 0
    <c0i> = 0
    <c1> = 0
    <c1i> = 0
    <Mu_ssd> = 0
    <Sigma_ssd> = 0
    <innerangle> = 0
    <outerangle> = 0
  <EndBdry>
  <BeginBdry>
    <BdryName> = "AntiPeriodicBC2"
    <BdryType> = 5
    <A_0> = 0
    <A_1> = 0
    <A_2> = 0
    <Phi> = 0
    <c0> = 0
    <c0i> = 0
    <c1> = 0
    <c1i> = 0
    <Mu_ssd> = 0
    <Sigma_ssd> = 0
    <innerangle> = 0
    <outerangle> = 0
  <EndBdry>
  <BeginBdry>
    <BdryName> = "AntiPeriodicBC3"
    <BdryType> = 5
    <A_0> = 0
    <A_1> = 0
    <A_2> = 0
    <Phi> = 0
    <c0> = 0
    <c0i> = 0
    <c1> = 0
    <c1i> = 0
    <Mu_ssd> = 0
    <Sigma_ssd> = 0
    <innerangle> = 0
    <outerangle> = 0
  <EndBdry>
  <BeginBdry>
    <BdryName> = "AntiPeriodicBC4"
    <BdryType> = 5
    <A_0> = 0
    <A_1> = 0
    <A_2> = 0
    <Phi> = 0
    <c0> = 0
    <c0i> = 0
    <c1> = 0
    <c1i> = 0
    <Mu_ssd> = 0
    <Sigma_ssd> = 0
    <innerangle> = 0
    <outerangle> = 0
  <EndBdry>
  <BeginBdry>
    <BdryName> = "AntiPeriodicBC5"
    <BdryType> = 5
    <A_0> = 0
    <A_1> = 0
    <A_2> = 0
    <Phi> = 0
    <c0> = 0
    <c0i> = 0
    <c1> = 0
    <c1i> = 0
    <Mu_ssd> = 0
    <Sigma_ssd> = 0
    <innerangle> = 0
    <outerangle> = 0
  <EndBdry>
  <BeginBdry>
    <BdryName> = "AntiPeriodicBC6"
    <BdryType> = 5
    <A_0> = 0
    <A_1> = 0
    <A_2> = 0
    <Phi> = 0
    <c0> = 0
    <c0i> = 0
    <c1> = 0
    <c1i> = 0
    <Mu_ssd> = 0
    <Sigma_ssd> = 0
    <innerangle> = 0
    <outerangle> = 0
  <EndBdry>
  <BeginBdry>
    <BdryName> = "AntiPeriodicBC7"
    <BdryType> = 5
    <A_0> = 0
    <A_1> = 0
    <A_2> = 0
    <Phi> = 0
    <c0> = 0
    <c0i> = 0
    <c1> = 0
    <c1i> = 0
    <Mu_ssd> = 0
    <Sigma_ssd> = 0
    <innerangle> = 0
    <outerangle> = 0
  <EndBdry>
  <BeginBdry>
    <BdryName> = "AntiPeriodicBC8"
    <BdryType> = 5
    <A_0> = 0
    <A_1> = 0
    <A_2> = 0
    <Phi> = 0
    <c0> = 0
    <c0i> = 0
    <c1> = 0
    <c1i> = 0
    <Mu_ssd> = 0
    <Sigma_ssd> = 0
    <innerangle> = 0
    <outerangle> = 0
  <EndBdry>
  <BeginBdry>
    <BdryName> = "AntiPeriodicBC9"
    <BdryType> = 5
    <A_0> = 0
    <A_1> = 0
    <A_2> = 0
    <Phi> = 0
    <c0> = 0
    <c0i> = 0
    <c1> = 0
    <c1i> = 0
    <Mu_ssd> = 0
    <Sigma_ssd> = 0
    <innerangle> = 0
    <outerangle> = 0
  <EndBdry>
  <BeginBdry>
    <BdryName> = "AntiPeriodicBC10"
    <BdryType> = 5
    <A_0> = 0
    <A_1> = 0
    <A_2> = 0
    <Phi> = 0
    <c0> = 0
    <c0i> = 0
    <c1> = 0
    <c1i> = 0
    <Mu_ssd> = 0
    <Sigma_ssd> = 0
    <innerangle> = 0
    <outerangle> = 0
  <EndBdry>
  <BeginBdry>
    <BdryName> = "GapSlidingBand"
    <BdryType> = 6
    <A_0> = 0
    <A_1> = 0
    <A_2> = 0
    <Phi> = 0
    <c0> = 0
    <c0i> = 0
    <c1> = 0
    <c1i> = 0
    <Mu_ssd> = 0
    <Sigma_ssd> = 0
    <innerangle> = 0
    <outerangle> = 0
  <EndBdry>
[BlockProps]  = 4
  <BeginBlock>
    <BlockName> = "Copper@150C"
    <Mu_x> = 1
    <Mu_y> = 1
    <H_c> = 0
    <H_cAngle> = 0
    <J_re> = 0
    <J_im> = 0
    <Sigma> = 38.815789473684212
    <d_lam> = 0
    <Phi_h> = 0
    <Phi_hx> = 0
    <Phi_hy> = 0
    <LamType> = 0
    <LamFill> = 1
    <NStrands> = 0
    <WireD> = 0
    <BHPoints> = 0
  <EndBlock>
  <BeginBlock>
    <BlockName> = "M19@50Hz"
    <Mu_x> = 1
    <Mu_y> = 1
    <H_c> = 0
    <H_cAngle> = 0
    <J_re> = 0
    <J_im> = 0
    <Sigma> = 0
    <d_lam> = 0
    <Phi_h> = 0
    <Phi_hx> = 0
    <Phi_hy> = 0
    <LamType> = 0
    <LamFill> = 1
    <NStrands> = 0
    <WireD> = 0
    <BHPoints> = 17
      0	0
      0.20000000000000001	31.899999999999999
      0.40000000000000002	44.899999999999999
      0.69999999999999996	67.299999999999997
      1	106
      1.2	164
      1.3	235
      1.3999999999999999	435
      1.5	1109
      1.55	1813
      1.6000000000000001	2802
      1.6499999999999999	4054
      1.7	5592
      1.8	9711
      1.8999999999999999	16044
      2	31319
      2.1000000000000001	88491
  <EndBlock>
  <BeginBlock>
    <BlockName> = "Air"
    <Mu_x> = 1
    <Mu_y> = 1
    <H_c> = 0
    <H_cAngle> = 0
    <J_re> = 0
    <J_im> = 0
    <Sigma> = 0
    <d_lam> = 0
    <Phi_h> = 0
    <Phi_hx> = 0
    <Phi_hy> = 0
    <LamType> = 0
    <LamFill> = 1
    <NStrands> = 0
    <WireD> = 0
    <BHPoints> = 0
  <EndBlock>
  <BeginBlock>
    <BlockName> = "BMN52UH@20C"
    <Mu_x> = 1.05
    <Mu_y> = 1.05
    <H_c> = 1098926.9880154678
    <H_cAngle> = 0
    <J_re> = 0
    <J_im> = 0
    <Sigma> = 1000000
    <d_lam> = 0
    <Phi_h> = 0
    <Phi_hx> = 0
    <Phi_hy> = 0
    <LamType> = 0
    <LamFill> = 1
    <NStrands> = 0
    <WireD> = 0
    <BHPoints> = 0
  <EndBlock>
[CircuitProps]  = 54
  <BeginCircuit>
    <CircuitName> = "Islot1"
    <TotalAmps_re> = 0
    <TotalAmps_im> = 0
    <CircuitType> = 0
  <EndCircuit>
  <BeginCircuit>
    <CircuitName> = "Islot2"
    <TotalAmps_re> = 0
    <TotalAmps_im> = 0
    <CircuitType> = 0
  <EndCircuit>
  <BeginCircuit>
    <CircuitName> = "Islot3"
    <TotalAmps_re> = 0
    <TotalAmps_im> = 0
    <CircuitType> = 0
  <EndCircuit>
  <BeginCircuit>
    <CircuitName> = "Islot4"
    <TotalAmps_re> = 0
    <TotalAmps_im> = 0
    <CircuitType> = 0
  <EndCircuit>
  <BeginCircuit>
    <CircuitName> = "Islot5"
    <TotalAmps_re> = 0
    <TotalAmps_im> = 0
    <CircuitType> = 0
  <EndCircuit>
  <BeginCircuit>
    <CircuitName> = "Islot6"
    <TotalAmps_re> = 0
    <TotalAmps_im> = 0
    <CircuitType> = 0
  <EndCircuit>
  <BeginCircuit>
    <CircuitName> = "Islot7"
    <TotalAmps_re> = 0
    <TotalAmps_im> = 0
    <CircuitType> = 0
  <EndCircuit>
  <BeginCircuit>
    <CircuitName> = "Islot8"
    <TotalAmps_re> = 0
    <TotalAmps_im> = 0
    <CircuitType> = 0
  <EndCircuit>
  <BeginCircuit>
    <CircuitName> = "Islot9"
    <TotalAmps_re> = 0
    <TotalAmps_im> = 0
    <CircuitType> = 0
  <EndCircuit>
  <BeginCircuit>
    <CircuitName> = "Islot10"
    <TotalAmps_re> = 0
    <TotalAmps_im> = 0
    <CircuitType> = 0
  <EndCircuit>
  <BeginCircuit>
    <CircuitName> = "Islot11"
    <TotalAmps_re> = 0
    <TotalAmps_im> = 0
    <CircuitType> = 0
  <EndCircuit>
  <BeginCircuit>
    <CircuitName> = "Islot12"
    <TotalAmps_re> = 0
    <TotalAmps_im> = 0
    <CircuitType> = 0
  <EndCircuit>
  <BeginCircuit>
    <CircuitName> = "Islot13"
    <TotalAmps_re> = 0
    <TotalAmps_im> = 0
    <CircuitType> = 0
  <EndCircuit>
  <BeginCircuit>
    <CircuitName> = "Islot14"
    <TotalAmps_re> = 0
    <TotalAmps_im> = 0
    <CircuitType> = 0
  <EndCircuit>
  <BeginCircuit>
    <CircuitName> = "Islot15"
    <TotalAmps_re> = 0
    <TotalAmps_im> = 0
    <CircuitType> = 0
  <EndCircuit>
  <BeginCircuit>
    <CircuitName> = "Islot16"
    <TotalAmps_re> = 0
    <TotalAmps_im> = 0
    <CircuitType> = 0
  <EndCircuit>
  <BeginCircuit>
    <CircuitName> = "Islot17"
    <TotalAmps_re> = 0
    <TotalAmps_im> = 0
    <CircuitType> = 0
  <EndCircuit>
  <BeginCircuit>
    <CircuitName> = "Islot18"
    <TotalAmps_re> = 0
    <TotalAmps_im> = 0
    <CircuitType> = 0
  <EndCircuit>
  <BeginCircuit>
    <CircuitName> = "Islot19"
    <TotalAmps_re> = 0
    <TotalAmps_im> = 0
    <CircuitType> = 0
  <EndCircuit>
  <BeginCircuit>
    <CircuitName> = "Islot20"
    <TotalAmps_re> = 0
    <TotalAmps_im> = 0
    <CircuitType> = 0
  <EndCircuit>
  <BeginCircuit>
    <CircuitName> = "Islot21"
    <TotalAmps_re> = 0
    <TotalAmps_im> = 0
    <CircuitType> = 0
  <EndCircuit>
  <BeginCircuit>
    <CircuitName> = "Islot22"
    <TotalAmps_re> = 0
    <TotalAmps_im> = 0
    <CircuitType> = 0
  <EndCircuit>
  <BeginCircuit>
    <CircuitName> = "Islot23"
    <TotalAmps_re> = 0
    <TotalAmps_im> = 0
    <CircuitType> = 0
  <EndCircuit>
  <BeginCircuit>
    <CircuitName> = "Islot24"
    <TotalAmps_re> = 0
    <TotalAmps_im> = 0
    <CircuitType> = 0
  <EndCircuit>
  <BeginCircuit>
    <CircuitName> = "Islot25"
    <TotalAmps_re> = 0
    <TotalAmps_im> = 0
    <CircuitType> = 0
  <EndCircuit>
  <BeginCircuit>
    <CircuitName> = "Islot26"
    <TotalAmps_re> = 0
    <TotalAmps_im> = 0
    <CircuitType> = 0
  <EndCircuit>
  <BeginCircuit>
    <CircuitName> = "Islot27"
    <TotalAmps_re> = 0
    <TotalAmps_im> = 0
    <CircuitType> = 0
  <EndCircuit>
  <BeginCircuit>
    <CircuitName> = "Islot28"
    <TotalAmps_re> = 0
    <TotalAmps_im> = 0
    <CircuitType> = 0
  <EndCircuit>
  <BeginCircuit>
    <CircuitName> = "Islot29"
    <TotalAmps_re> = 0
    <TotalAmps_im> = 0
    <CircuitType> = 0
  <EndCircuit>
  <BeginCircuit>
    <CircuitName> = "Islot30"
    <TotalAmps_re> = 0
    <TotalAmps_im> = 0
    <CircuitType> = 0
  <EndCircuit>
  <BeginCircuit>
    <CircuitName> = "Islot31"
    <TotalAmps_re> = 0
    <TotalAmps_im> = 0
    <CircuitType> = 0
  <EndCircuit>
  <BeginCircuit>
    <CircuitName> = "Islot32"
    <TotalAmps_re> = 0
    <TotalAmps_im> = 0
    <CircuitType> = 0
  <EndCircuit>
  <BeginCircuit>
    <CircuitName> = "Islot33"
    <TotalAmps_re> = 0
    <TotalAmps_im> = 0
    <CircuitType> = 0
  <EndCircuit>
  <BeginCircuit>
    <CircuitName> = "Islot34"
    <TotalAmps_re> = 0
    <TotalAmps_im> = 0
    <CircuitType> = 0
  <EndCircuit>
  <BeginCircuit>
    <CircuitName> = "Islot35"
    <TotalAmps_re> = 0
    <TotalAmps_im> = 0
    <CircuitType> = 0
  <EndCircuit>
  <BeginCircuit>
    <CircuitName> = "Islot36"
    <TotalAmps_re> = 0
    <TotalAmps_im> = 0
    <CircuitType> = 0
  <EndCircuit>
  <BeginCircuit>
    <CircuitName> = "Islot37"
    <TotalAmps_re> = 0
    <TotalAmps_im> = 0
    <CircuitType> = 0
  <EndCircuit>
  <BeginCircuit>
    <CircuitName> = "Islot38"
    <TotalAmps_re> = 0
    <TotalAmps_im> = 0
    <CircuitType> = 0
  <EndCircuit>
  <BeginCircuit>
    <CircuitName> = "Islot39"
    <TotalAmps_re> = 0
    <TotalAmps_im> = 0
    <CircuitType> = 0
  <EndCircuit>
  <BeginCircuit>
    <CircuitName> = "Islot40"
    <TotalAmps_re> = 0
    <TotalAmps_im> = 0
    <CircuitType> = 0
  <EndCircuit>
  <BeginCircuit>
    <CircuitName> = "Islot41"
    <TotalAmps_re> = 0
    <TotalAmps_im> = 0
    <CircuitType> = 0
  <EndCircuit>
  <BeginCircuit>
    <CircuitName> = "Islot42"
    <TotalAmps_re> = 0
    <TotalAmps_im> = 0
    <CircuitType> = 0
  <EndCircuit>
  <BeginCircuit>
    <CircuitName> = "Islot43"
    <TotalAmps_re> = 0
    <TotalAmps_im> = 0
    <CircuitType> = 0
  <EndCircuit>
  <BeginCircuit>
    <CircuitName> = "Islot44"
    <TotalAmps_re> = 0
    <TotalAmps_im> = 0
    <CircuitType> = 0
  <EndCircuit>
  <BeginCircuit>
    <CircuitName> = "Islot45"
    <TotalAmps_re> = 0
    <TotalAmps_im> = 0
    <CircuitType> = 0
  <EndCircuit>
  <BeginCircuit>
    <CircuitName> = "Islot46"
    <TotalAmps_re> = 0
    <TotalAmps_im> = 0
    <CircuitType> = 0
  <EndCircuit>
  <BeginCircuit>
    <CircuitName> = "Islot47"
    <TotalAmps_re> = 0
    <TotalAmps_im> = 0
    <CircuitType> = 0
  <EndCircuit>
  <BeginCircuit>
    <CircuitName> = "Islot48"
    <TotalAmps_re> = 0
    <TotalAmps_im> = 0
    <CircuitType> = 0
  <EndCircuit>
  <BeginCircuit>
    <CircuitName> = "Islot49"
    <TotalAmps_re> = 0
    <TotalAmps_im> = 0
    <CircuitType> = 0
  <EndCircuit>
  <BeginCircuit>
    <CircuitName> = "Islot50"
    <TotalAmps_re> = 0
    <TotalAmps_im> = 0
    <CircuitType> = 0
  <EndCircuit>
  <BeginCircuit>
    <CircuitName> = "Islot51"
    <TotalAmps_re> = 0
    <TotalAmps_im> = 0
    <CircuitType> = 0
  <EndCircuit>
  <BeginCircuit>
    <CircuitName> = "Islot52"
    <TotalAmps_re> = 0
    <TotalAmps_im> = 0
    <CircuitType> = 0
  <EndCircuit>
  <BeginCircuit>
    <CircuitName> = "Islot53"
    <TotalAmps_re> = 0
    <TotalAmps_im> = 0
    <CircuitType> = 0
  <EndCircuit>
  <BeginCircuit>
    <CircuitName> = "Islot54"
    <TotalAmps_re> = 0
    <TotalAmps_im> = 0
    <CircuitType> = 0
  <EndCircuit>
[NumPoints] = 1220
76.440284661047372	5.6644521121924294	0	0
76.510655107869965	4.4562382008168333	0	0
76.668871491120001	6.7714991690286075	0	0
91.502655903032178	8.5053199044655337	0	0
85.233225597532297	7.772528597729055	0	0
94.340120956634848	5.4946863320399659	0	0
94.285717618404021	6.2114366752032222	0	0
94.369295110352851	4.7764665562121618	0	0
76.936587081297205	2.1749999999999998	0	0
85.559244512573585	2.1750000000000003	0	0
76.581025554692559	3.2480242894412372	0	0
91.871355051430527	2.1750000000000003	0	0
75.4419765027761	5.6063072832819536	0	0
75.582717396421288	3.1898794605307614	0	0
75.265820049438091	14.500326516285016	0	0
75.475979750331973	13.308451625389278	0	0
75.364340938238996	15.626425428193812	0	0
89.896540304877064	19.070619947962413	0	0
83.75457352250946	17.614947079821388	0	0
93.064332659653672	16.409752789524919	0	0
92.927087541295521	17.115340881206009	0	0
93.176689774939263	15.699776271406186	0	0
76.163867314675258	11.092086025206061	0	0
84.728221421087568	12.093115453906508	0	0
75.686139451225841	12.116576734493542	0	0
90.997651726587449	12.825906760642988	0	0
74.281012296425885	14.326678338618084	0	0
74.701331698213636	11.942928556826612	0	0
73.073514338961616	23.140108879321325	0	0
73.420621244497767	21.980691072162642	0	0
73.040636960480768	24.270031090323712	0	0
87.074728215164768	29.378022572004312	0	0
81.143284520215929	27.219153620817	0	0
90.530008913813688	27.10290549119803	0	0
90.311778020112243	27.787789462881967	0	0
90.724029553429475	26.410773445242643	0	0
74.361161900509373	19.859170615216044	0	0
82.751394484779865	21.84769226684362	0	0
73.767728150033918	20.82127326500396	0	0
88.893361267147455	23.303365134984645	0	0
72.115524826646123	22.853305646610231	0	0
72.809738637718425	20.534470032292869	0	0
69.89301470348704	31.466960966248713	0	0
70.372374788224391	30.355679379706345	0	0
69.729183667867758	32.58542621680423	0	0
83.07537980163552	39.288137838284179	0	0
77.43467179478354	36.455267803110488	0	0
86.771422100185902	37.429537890700317	0	0
86.475156629606857	38.084455861577496	0	0
87.04448246782033	36.76461021548846	0	0
71.552849337014109	28.357693990742412	0	0
79.655496896749298	31.306816521235703	0	0
70.851734872961728	29.244397793163969	0	0
85.586940591698124	33.465685472423019	0	0
68.97479859660676	31.070881200209559	0	0
69.933518766081463	28.848318027124812	0	0
65.767331944488248	39.368276387172074	0	0
66.372462685615233	38.320159198318336	0	0
65.474762785437818	40.460159353476065	0	0
77.952579390764512	48.66694843846863	0	0
72.678887971258391	45.198387026791387	0	0
81.839400657629454	47.25	0	0
81.469107092423755	47.866095328015533	0	0
82.187808080240956	46.621268701666196	0	0
67.776907233995743	36.472728202211073	0	0
75.482395360911553	40.342569788517338	0	0
66.977593426742203	37.272042009464613	0	0
81.12310336776352	43.175439823691036	0	0
64.901306540703814	38.868276387172074	0	0
66.111568022957769	36.772042009464613	0	0
60.752258843738453	46.737203405602685	0	0
61.474976886073335	45.7664246013887	0	0
60.33490805723531	47.787738243643531	0	0
71.775604070027228	57.387622048388607	0	0
66.940246867383138	53.330275603039546	0	0
75.800641715351645	56.431486915913297	0	0
75.361327640756073	57.000427968657377	0	0
76.219684580236702	55.84745450668909	0	0
63.084398730829804	44.09453133312234	0	0
70.288523916650405	48.832759006437662	0	0
62.197694928408232	44.795645797174707	0	0
75.562215336156513	52.301320418114905	0	0
59.950135650983398	46.140044813899898	0	0
61.395571735653192	44.198487205471913	0	0
54.915615661648154	53.474089924891842	0	0
55.746147483479547	52.593777623289185	0	0
54.379127201121229	54.46906995316062	0	0
64.627986834135015	65.332226517645012	0	0
60.296353759541319	60.740963688985019	0	0
68.736809128653107	64.849834778595323	0	0
68.23441551389034	65.363927604338798	0	0
69.220820599925432	64.318399294917299	0	0
57.538781955098855	51.120031571211086	0	0
64.144120765246683	56.662568930607101	0	0
56.576679305310932	51.713465321686535	0	0
68.979477967890787	60.71991537595617	0	0
54.188242020075101	52.787848287023103	0	0
55.84930566373788	51.027223683817802	0	0
48.336332984587827	59.487831111886429	0	0
49.2634470677894	58.709890026612719	0	0
47.687961936128431	60.413800932373015	0	0
56.606386944581118	72.393324699632103	0	0
52.837055904524988	67.330234441181418	0	0
60.743429115377978	72.391199874743435	0	0
60.18474997223953	72.843492249936062	0	0
61.285863768202489	71.919548069859317	0	0
51.215051860278464	57.454221077889621	0	0
57.132278418698576	63.726114813714027	0	0
50.19056115099098	57.931948941339016	0	0
61.463911493292258	68.317377642374026	0	0
47.693545374901284	58.72178666876745	0	0
49.547773541304437	57.16590449822003	0	0
41.103384324111296	64.697101433508422	0	0
42.11454304115702	64.032051883196587	0	0
40.351898793879755	65.541538892877043	0	0
47.819282778946416	78.47542735463864	0	0
44.663227509517938	73.008979276493037	0	0
51.928598427691178	78.953598178522498	0	0
51.321188933182938	79.337973624690093	0	0
52.522120763926345	78.548108333982285	0	0
44.198726047643987	63.01144080628012	0	0
49.347820016040558	69.927874315088545	0	0
43.125701758202752	63.367002332884759	0	0
53.117151056096681	74.99096457353923	0	0
40.553875346040485	63.861613622095476	0	0
42.57619278013194	62.53151452147182	0	0
56.958661190311396	-19.039471543404748	0	10
56.988853314391058	-19.438330405833096	0	10
57.914967296286477	-44.92142050896355	0	10
53.487824427249237	-50.139368713402597	0	10
52.637263176589649	-49.863136258341065	0	10
52.213971966779567	-44.271166636033499	0	10
52.096275355869622	-42.716313009018123	0	10
50.256253556551059	-18.408352513477944	0	10
52.454055634706137	-16.660200913430899	0	10
55.928579721349699	-17.744437879070119	0	10
57.0924008056639	-20.806264383430666	0	10
57.127684533237357	-21.27238682672434	0	10
50.615280438222563	-21.296558194570125	0	10
58.586016764045397	-40.537964170923324	0	10
58.712996321854945	-42.215451954091812	0	10
58.728264560185515	-42.417155992976973	0	10
53.993443925506639	-42.572704436677981	0	10
52.235875954413615	-42.705745765231228	0	10
58.0524308141256	-15.385247408344295	0	10
58.296795388094381	-15.068567899245441	0	10
73.071304020344684	5.7150665997369998	0	10
72.238993654343204	12.507256003877799	0	10
71.37654016576144	12.743757146340194	0	10
67.950568196088014	8.3039355544149167	0	10
66.99797272385058	7.069438021029292	0	10
52.105475639203831	-12.230203277671016	0	10
52.981400122873509	-14.898371992426132	0	10
56.480238140636416	-15.901377451923612	0	10
59.134872805879439	-13.982477805462366	0	10
71.223681391249528	1.6837780369892954	0	10
72.251409814336711	3.0156426544184356	0	10
72.374985658256165	3.1757883668302966	0	10
68.504255939008999	5.9071201301749703	0	10
67.108810549075642	6.9839104216565318	0	10
53.992273547673513	-10.01421004366831	0	10
59.420396858478028	-13.612458475137583	0	10
57.534380755693505	-26.645125194428889	0	10
62.712083621023666	-9.346661179144359	0	10
61.607273205825194	-10.778418700960959	0	10
61.993196928718845	-10.278288374979894	0	10
62.614090886546926	-9.4736529532445743	0	10
62.208001045671494	-9.9999171667315991	0	10
62.177709292823451	-10.03917317336634	0	10
62.193870340115396	-10.018229579151136	0	10
57.269117118405958	-23.140809090864963	0	10
62.091213066623411	-10.151266271663609	0	10
62.103433976725853	-10.135428821435134	0	10
62.155933763007006	-10.06739274676768	0	10
62.051438337392696	-10.202811556692524	0	10
62.065064114042912	-10.185153497046098	0	10
62.118129122547799	-10.116384933655521	0	10
62.019480853436207	-10.244226235087652	0	10
33.314582902844627	69.031454445077202	0	0
34.396112066712952	68.488290084013428	0	0
32.470145443476014	69.782939975308736	0	0
38.385504846935511	83.496284478004753	0	0
35.885405581491753	77.70040291281758	0	0
42.411522528943685	84.448284510562459	0	0
41.763596854477676	84.759545009185516	0	0
43.048106177169927	84.114440180902264	0	0
36.584688287417457	67.71653889287704	0	0
40.896017003055647	75.183979276493062	0	0
35.477641230581277	67.945125722949655	0	0
44.052072272484118	80.650427354638651	0	0
32.865783722644167	68.13782180475377	0	0
35.02884205038081	67.051493082626237	0	0
25.075258898447117	72.43227545762403	0	0
26.212532682542577	72.018341652001993	0	0
24.149289077960539	73.080646506083426	0	0
28.43262881158482	87.387997590336425	0	0
26.622295103810902	81.341061893535397	0	0
32.320903544275708	88.800952664268351	0	0
31.641223773093024	89.034888951065327	0	0
32.991939802699747	88.543268521342242	0	0
28.475905378546827	71.505886957579079	0	0
31.891165516562573	79.423349895087938	0	0
27.349806466638022	71.604407846379956	0	0
34.391264782006324	85.219231460275111	0	0
24.733238755121455	71.49258283683811	0	0
27.007786323312356	70.664715225594051	0	0
16.49683503365069	74.853574201007859	0	0
17.674473761018234	74.574468695451827	0	0
15.50185500538192	75.390062661534813	0	0
18.095250247274006	90.097937947960475	0	0
16.999163754969263	83.88172255142409	0	0
21.793199785160599	91.952740269793352	0	0
21.090957420186804	92.106188757799288	0	0
22.489614039539155	91.774701049581424	0	0
19.982034699388162	74.328240568376657	0	0
22.455040725238536	82.588655955828671	0	0
18.852112488385774	74.295363189895795	0	0
24.26537443301245	88.635591652629685	0	0
16.266219162908254	73.880529330428033	0	0
18.621496617643334	73.322318319315968	0	0
7.6953197750788185	76.262606763423435	0	0
8.8973979021510594	76.122103981095051	0	0
6.6447849370379721	76.67995754992657	0	0
7.5131644654790293	91.589458256399098	0	0
7.1461478781331742	85.288026809548143	0	0
10.970780384834271	93.861024806613614	0	0
10.255472049370155	93.9319103682666	0	0
11.683154827064282	93.765038184145823	0	0
11.217941279778817	76.14543223438595	0	0
12.715250029366175	84.637092124275256	0	0
10.0994760292233	75.981601198766654	0	0
13.811336521670903	90.85330752081164	0	0
7.5792268609535824	75.269368405681476	0	0
9.983383115098075	74.988362841024724	0	0
-1.2102614822539408	76.640318396636687	0	0
1.4210854715202004e-014	76.640318396636687	0	0
-2.3021444485579252	76.932887555687159	0	0
-3.1705239769989859	91.842388262159659	0	0
-2.8035073896531415	85.540956815308732	0	0
7.1054273576010019e-015	94.5	0	0
-0.71870098781719349	94.487364029681729	0	0
0.7187009878172077	94.487364029681714	0	0
2.3021444485579536	76.932887555687145	0	0
2.8035073896531628	85.540956815308732	0	0
1.2102614822539621	76.640318396636687	0	0
3.1705239769990072	91.842388262159673	0	0
-1.2102614822539408	75.640318396636687	0	0
1.2102614822539621	75.640318396636687	0	0
-10.099476029223272	75.981601198766668	0	0
-8.8973979021510345	76.122103981095051	0	0
-11.217941279778785	76.14543223438595	0	0
-13.811336521670874	90.853307520811626	0	0
-12.715250029366139	84.637092124275256	0	0
-10.970780384834249	93.861024806613614	0	0
-11.683154827064271	93.765038184145851	0	0
-10.255472049370127	93.931910368266585	0	0
-6.6447849370379473	76.67995754992657	0	0
-7.1461478781331493	85.288026809548171	0	0
-7.6953197750787901	76.262606763423435	0	0
-7.5131644654790009	91.589458256399112	0	0
-9.983383115098043	74.988362841024724	0	0
-7.579226860953554	75.26936840568149	0	0
-18.852112488385753	74.295363189895809	0	0
-17.674473761018206	74.574468695451841	0	0
-19.982034699388134	74.328240568376671	0	0
-24.265374433012411	88.635591652629671	0	0
-22.455040725238504	82.588655955828642	0	0
-21.793199785160581	91.952740269793367	0	0
-22.489614039539141	91.774701049581452	0	0
-21.090957420186783	92.106188757799259	0	0
-15.501855005381898	75.390062661534813	0	0
-16.999163754969253	83.881722551424104	0	0
-16.496835033650669	74.853574201007859	0	0
-18.095250247273981	90.097937947960503	0	0
-18.621496617643313	73.322318319315983	0	0
-16.266219162908236	73.880529330428033	0	0
-27.349806466638015	71.604407846379971	0	0
-26.212532682542559	72.018341652001993	0	0
-28.475905378546816	71.505886957579079	0	0
-34.391264782006296	85.219231460275097	0	0
-31.891165516562552	79.423349895087924	0	0
-32.320903544275687	88.800952664268365	0	0
-32.991939802699733	88.543268521342256	0	0
-31.641223773093003	89.034888951065312	0	0
-24.149289077960525	73.08064650608344	0	0
-26.622295103810892	81.341061893535425	0	0
-25.075258898447107	72.43227545762403	0	0
-28.432628811584806	87.387997590336454	0	0
-27.007786323312352	70.664715225594051	0	0
-24.733238755121434	71.492582836838125	0	0
-35.477641230581263	67.945125722949669	0	0
-34.396112066712931	68.488290084013428	0	0
-36.58468828741745	67.716538892877054	0	0
-44.052072272484097	80.650427354638651	0	0
-40.896017003055618	75.183979276493034	0	0
-42.411522528943664	84.448284510562473	0	0
-43.048106177169899	84.114440180902278	0	0
-41.763596854477655	84.759545009185501	0	0
-32.470145443476	69.782939975308736	0	0
-35.885405581491746	77.700402912817594	0	0
-33.314582902844606	69.031454445077202	0	0
-38.38550484693549	83.496284478004767	0	0
-35.028842050380788	67.051493082626251	0	0
-32.865783722644146	68.13782180475377	0	0
44.967996626375125	39.807911784658081	0	10
45.328514595802481	39.634629499891105	0	10
67.860574982988965	27.695122683447277	0	10
70.165879249145959	21.252130390458369	0	10
69.501374300383134	20.653638967443271	0	10
64.446940945368866	23.083042837702873	0	10
63.041549899752198	23.758541396223215	0	10
41.070227696766551	34.31901602226629	0	10
40.655185040536942	37.096444254462334	0	10
43.331423839824453	39.563351896736975	0	10
46.56495391673829	39.040337269032754	0	10
46.986269657691409	38.837832651804732	0	10
43.75100062878267	33.185839581889226	0	10
64.39991517174569	30.467996738742638	0	10
65.916151985412398	29.739220369982775	0	10
66.098466926298158	29.651591032805499	0	10
63.865765512722945	25.473341858960335	0	10
63.102198697456771	23.884722682839278	0	10
42.350230506197661	42.582256132299165	0	10
42.198160293444467	42.952221815690507	0	10
31.586259150480156	66.139138869142982	0	10
25.287895396177998	68.814431650422975	0	10
24.651852654490639	68.18577559095985	0	10
26.783864956531882	62.998886036606621	0	10
27.376673445234335	61.556665391426151	0	10
36.644404551512736	39.009563940986212	0	10
39.393068681908375	38.434052438263372	0	10
42.011115898849127	40.962632315624084	0	10
41.676617390322228	44.221063196721971	0	10
34.153646141257745	62.523406454365727	0	10
33.514081759706073	64.079377685665122	0	10
33.437179426409969	64.26647036199941	0	10
29.136411873566544	62.279985975620278	0	10
27.506161431628382	61.6098899640849	0	10
35.668697070486786	41.751575478529659	0	10
41.498933276668957	44.653343944826233	0	10
51.842545683238953	36.503672728222654	0	10
39.450487832216666	49.636926950488323	0	10
40.138021010570057	47.964254303652496	0	10
39.897857304514297	48.548539214592012	0	10
39.511469567420747	49.488566865995047	0	10
39.764182824965431	48.873750640834636	0	10
39.783033647538218	48.827889210025702	0	10
39.772976486547272	48.852356884639889	0	10
48.675087096017926	38.026105731413338	0	10
39.836861005152542	48.696934731656341	0	10
39.829255825974727	48.715437075376663	0	10
39.796584750079525	48.794921261323118	0	10
39.861613166817527	48.636716163199438	0	10
39.853133726907302	48.657345461748037	0	10
39.820110908281741	48.737685388860584	0	10
39.881500588419037	48.588332831054515	0	10
-43.125701758202737	63.367002332884773	0	0
-42.114543041157006	64.032051883196587	0	0
-44.19872604764398	63.011440806280135	0	0
-53.117151056096652	74.99096457353923	0	0
-49.347820016040529	69.92787431508853	0	0
-51.928598427691149	78.953598178522498	0	0
-52.522120763926331	78.548108333982299	0	0
-51.32118893318291	79.337973624690093	0	0
-40.351898793879741	65.541538892877043	0	0
-44.663227509517924	73.008979276493051	0	0
-41.103384324111275	64.697101433508422	0	0
-47.819282778946395	78.475427354638654	0	0
-42.576192780131933	62.531514521471834	0	0
-40.553875346040471	63.86161362209549	0	0
-50.190561150990966	57.931948941339016	0	0
-49.263447067789393	58.709890026612726	0	0
-51.21505186027845	57.454221077889628	0	0
-61.46391149329223	68.317377642374026	0	0
-57.132278418698547	63.72611481371402	0	0
-60.74342911537795	72.39119987474345	0	0
-61.285863768202482	71.919548069859331	0	0
-60.184749972239501	72.843492249936077	0	0
-47.687961936128424	60.413800932373029	0	0
-52.837055904524981	67.330234441181432	0	0
-48.336332984587813	59.487831111886429	0	0
-56.606386944581111	72.393324699632132	0	0
-49.547773541304423	57.165904498220044	0	0
-47.693545374901277	58.721786668767457	0	0